<edges>

    <!-- NORTH <-> CENTER -->
    <edge id="north_in"  from="north"  to="center" numLanes="2" speed="13.9"/>
    <edge id="north_out" from="center" to="north"  numLanes="2" speed="13.9"/>

    <!-- SOUTH <-> CENTER -->
    <edge id="south_in"  from="south"  to="center" numLanes="2" speed="13.9"/>
    <edge id="south_out" from="center" to="south"  numLanes="2" speed="13.9"/>

    <!-- EAST <-> CENTER -->
    <edge id="east_in"   from="east"   to="center" numLanes="2" speed="13.9"/>
    <edge id="east_out"  from="center" to="east"   numLanes="2" speed="13.9"/>

    <!-- WEST <-> CENTER -->
    <edge id="west_in"   from="west"   to="center" numLanes="2" speed="13.9"/>
    <edge id="west_out"  from="center" to="west"   numLanes="2" speed="13.9"/>

</edges>
