<?xml version="1.0" encoding="UTF-8"?>

<!-- generated on 2025-11-13 02:00:49 by Eclipse SUMO netconvert Version 1.24.0
<netconvertConfiguration xmlns:xsi="http://www.w3.org/2001/XMLSchema-instance" xsi:noNamespaceSchemaLocation="http://sumo.dlr.de/xsd/netconvertConfiguration.xsd">

    <input>
        <sumo-net-file value="simple.net.xml"/>
        <node-files value="simple.nod.xml"/>
        <edge-files value="simple.edg.xml"/>
        <connection-files value="simple.con.xml"/>
        <tllogic-files value="simple.tll.xml"/>
    </input>

    <processing>
        <geometry.min-radius.fix.railways value="false"/>
        <geometry.avoid-overlap value="false"/>
        <geometry.max-grade.fix value="false"/>
        <offset.disable-normalization value="true"/>
    </processing>

    <junctions>
        <no-turnarounds value="true"/>
    </junctions>

</netconvertConfiguration>
-->

<net version="1.20" junctionCornerDetail="5" limitTurnSpeed="5.50" avoidOverlap="0" xmlns:xsi="http://www.w3.org/2001/XMLSchema-instance" xsi:noNamespaceSchemaLocation="http://sumo.dlr.de/xsd/net_file.xsd">

    <location netOffset="0.00,0.00" convBoundary="-100.00,-100.00,100.00,100.00" origBoundary="-100.00,-100.00,100.00,100.00" projParameter="!"/>

    <edge id=":center_0" function="internal">
        <lane id=":center_0_0" index="0" speed="13.89" length="14.40" shape="-1.60,7.20 -1.60,-7.20"/>
    </edge>
    <edge id=":center_1" function="internal">
        <lane id=":center_1_0" index="0" speed="13.89" length="14.40" shape="7.20,1.60 -7.20,1.60"/>
    </edge>
    <edge id=":center_2" function="internal">
        <lane id=":center_2_0" index="0" speed="13.89" length="14.40" shape="1.60,-7.20 1.60,7.20"/>
    </edge>
    <edge id=":center_3" function="internal">
        <lane id=":center_3_0" index="0" speed="13.89" length="14.40" shape="-7.20,-1.60 7.20,-1.60"/>
    </edge>

    <edge id="east_in" from="east" to="center" priority="2">
        <lane id="east_in_0" index="0" speed="13.89" length="92.80" shape="100.00,1.60 7.20,1.60"/>
    </edge>
    <edge id="east_out" from="center" to="east" priority="2">
        <lane id="east_out_0" index="0" speed="13.89" length="92.80" shape="7.20,-1.60 100.00,-1.60"/>
    </edge>
    <edge id="north_in" from="north" to="center" priority="2">
        <lane id="north_in_0" index="0" speed="13.89" length="92.80" shape="-1.60,100.00 -1.60,7.20"/>
    </edge>
    <edge id="north_out" from="center" to="north" priority="2">
        <lane id="north_out_0" index="0" speed="13.89" length="92.80" shape="1.60,7.20 1.60,100.00"/>
    </edge>
    <edge id="south_in" from="south" to="center" priority="2">
        <lane id="south_in_0" index="0" speed="13.89" length="92.80" shape="1.60,-100.00 1.60,-7.20"/>
    </edge>
    <edge id="south_out" from="center" to="south" priority="2">
        <lane id="south_out_0" index="0" speed="13.89" length="92.80" shape="-1.60,-7.20 -1.60,-100.00"/>
    </edge>
    <edge id="west_in" from="west" to="center" priority="2">
        <lane id="west_in_0" index="0" speed="13.89" length="92.80" shape="-100.00,-1.60 -7.20,-1.60"/>
    </edge>
    <edge id="west_out" from="center" to="west" priority="2">
        <lane id="west_out_0" index="0" speed="13.89" length="92.80" shape="-7.20,1.60 -100.00,1.60"/>
    </edge>

    <tlLogic id="center" type="static" programID="1" offset="0">
        <phase duration="30" state="GrGr"/>
        <phase duration="5"  state="yryr"/>
        <phase duration="30" state="rGrG"/>
        <phase duration="5"  state="ryry"/>
    </tlLogic>

    <junction id="center" type="traffic_light" x="0.00" y="0.00" incLanes="north_in_0 east_in_0 south_in_0 west_in_0" intLanes=":center_0_0 :center_1_0 :center_2_0 :center_3_0" shape="-3.20,7.20 3.20,7.20 3.64,4.98 4.20,4.20 4.98,3.64 5.98,3.31 7.20,3.20 7.20,-3.20 4.98,-3.64 4.20,-4.20 3.64,-4.98 3.31,-5.98 3.20,-7.20 -3.20,-7.20 -3.64,-4.98 -4.20,-4.20 -4.98,-3.64 -5.98,-3.31 -7.20,-3.20 -7.20,3.20 -4.98,3.64 -4.20,4.20 -3.64,4.98 -3.31,5.98">
        <request index="0" response="0000" foes="1010" cont="0"/>
        <request index="1" response="0101" foes="0101" cont="0"/>
        <request index="2" response="0000" foes="1010" cont="0"/>
        <request index="3" response="0101" foes="0101" cont="0"/>
    </junction>
    <junction id="east" type="dead_end" x="100.00" y="0.00" incLanes="east_out_0" intLanes="" shape="100.00,0.00 100.00,-3.20 100.00,0.00"/>
    <junction id="north" type="dead_end" x="0.00" y="100.00" incLanes="north_out_0" intLanes="" shape="0.00,100.00 3.20,100.00 0.00,100.00"/>
    <junction id="south" type="dead_end" x="0.00" y="-100.00" incLanes="south_out_0" intLanes="" shape="0.00,-100.00 -3.20,-100.00 0.00,-100.00"/>
    <junction id="west" type="dead_end" x="-100.00" y="0.00" incLanes="west_out_0" intLanes="" shape="-100.00,0.00 -100.00,3.20 -100.00,0.00"/>

    <connection from="east_in" to="west_out" fromLane="0" toLane="0" via=":center_1_0" tl="center" linkIndex="1" dir="s" state="o"/>
    <connection from="north_in" to="south_out" fromLane="0" toLane="0" via=":center_0_0" tl="center" linkIndex="0" dir="s" state="O"/>
    <connection from="south_in" to="north_out" fromLane="0" toLane="0" via=":center_2_0" tl="center" linkIndex="2" dir="s" state="O"/>
    <connection from="west_in" to="east_out" fromLane="0" toLane="0" via=":center_3_0" tl="center" linkIndex="3" dir="s" state="o"/>

    <connection from=":center_0" to="south_out" fromLane="0" toLane="0" dir="s" state="M"/>
    <connection from=":center_1" to="west_out" fromLane="0" toLane="0" dir="s" state="M"/>
    <connection from=":center_2" to="north_out" fromLane="0" toLane="0" dir="s" state="M"/>
    <connection from=":center_3" to="east_out" fromLane="0" toLane="0" dir="s" state="M"/>

</net>
