<?xml version="1.0" encoding="UTF-8"?>
<nodes>
    <node id="north" x="100.00" y="200.00" type="priority"/>
    <node id="south" x="100.00" y="0.00"   type="priority"/>
    <node id="east"  x="200.00" y="100.00" type="priority"/>
    <node id="west"  x="0.00"   y="100.00" type="priority"/>
    <node id="center" x="100.00" y="100.00" type="traffic_light"/>
</nodes>
