<?xml version="1.0" encoding="UTF-8"?>

<!-- generated on 2025-11-20 12:42:43 by Eclipse SUMO netconvert Version 1.24.0
<netconvertConfiguration xmlns:xsi="http://www.w3.org/2001/XMLSchema-instance" xsi:noNamespaceSchemaLocation="http://sumo.dlr.de/xsd/netconvertConfiguration.xsd">

    <input>
        <node-files value="nodes.nod.xml"/>
        <edge-files value="edges.edg.xml"/>
        <connection-files value="connections.con.xml"/>
    </input>

    <output>
        <output-file value="simple.net.xml"/>
    </output>

</netconvertConfiguration>
-->

<net version="1.20" junctionCornerDetail="5" limitTurnSpeed="5.50" xmlns:xsi="http://www.w3.org/2001/XMLSchema-instance" xsi:noNamespaceSchemaLocation="http://sumo.dlr.de/xsd/net_file.xsd">

    <location netOffset="100.00,100.00" convBoundary="0.00,0.00,200.00,200.00" origBoundary="-100.00,-100.00,100.00,100.00" projParameter="!"/>

    <edge id=":center_0" function="internal">
        <lane id=":center_0_0" index="0" speed="13.90" length="20.80" shape="95.20,110.40 95.20,89.60"/>
    </edge>
    <edge id=":center_1" function="internal">
        <lane id=":center_1_0" index="0" speed="10.10" length="5.43" shape="95.20,110.40 96.53,105.14"/>
    </edge>
    <edge id=":center_2" function="internal">
        <lane id=":center_2_0" index="0" speed="8.00" length="4.07" shape="98.40,110.40 97.85,106.55 97.76,106.40"/>
    </edge>
    <edge id=":center_3" function="internal">
        <lane id=":center_3_0" index="0" speed="13.90" length="20.80" shape="98.40,110.40 98.40,89.60"/>
    </edge>
    <edge id=":center_16" function="internal">
        <lane id=":center_16_0" index="0" speed="10.10" length="17.79" shape="96.53,105.14 96.57,105.00 100.11,100.11 105.00,96.57 110.40,95.20"/>
    </edge>
    <edge id=":center_17" function="internal">
        <lane id=":center_17_0" index="0" speed="8.00" length="10.13" shape="97.76,106.40 96.20,103.80 93.45,102.15 89.60,101.60"/>
    </edge>
    <edge id=":center_4" function="internal">
        <lane id=":center_4_0" index="0" speed="13.90" length="20.80" shape="110.40,104.80 89.60,104.80"/>
    </edge>
    <edge id=":center_5" function="internal">
        <lane id=":center_5_0" index="0" speed="10.10" length="9.83" shape="110.40,104.80 105.00,103.43 101.55,100.93"/>
    </edge>
    <edge id=":center_6" function="internal">
        <lane id=":center_6_0" index="0" speed="8.00" length="4.07" shape="110.40,101.60 106.55,102.15 106.40,102.24"/>
    </edge>
    <edge id=":center_7" function="internal">
        <lane id=":center_7_0" index="0" speed="13.90" length="20.80" shape="110.40,101.60 89.60,101.60"/>
    </edge>
    <edge id=":center_18" function="internal">
        <lane id=":center_18_0" index="0" speed="10.10" length="13.39" shape="101.55,100.93 100.11,99.89 96.57,95.00 95.20,89.60"/>
    </edge>
    <edge id=":center_19" function="internal">
        <lane id=":center_19_0" index="0" speed="8.00" length="10.13" shape="106.40,102.24 103.80,103.80 102.15,106.55 101.60,110.40"/>
    </edge>
    <edge id=":center_8" function="internal">
        <lane id=":center_8_0" index="0" speed="13.90" length="20.80" shape="104.80,89.60 104.80,110.40"/>
    </edge>
    <edge id=":center_9" function="internal">
        <lane id=":center_9_0" index="0" speed="10.10" length="5.43" shape="104.80,89.60 103.47,94.86"/>
    </edge>
    <edge id=":center_10" function="internal">
        <lane id=":center_10_0" index="0" speed="8.00" length="4.07" shape="101.60,89.60 102.15,93.45 102.24,93.60"/>
    </edge>
    <edge id=":center_11" function="internal">
        <lane id=":center_11_0" index="0" speed="13.90" length="20.80" shape="101.60,89.60 101.60,110.40"/>
    </edge>
    <edge id=":center_20" function="internal">
        <lane id=":center_20_0" index="0" speed="10.10" length="17.79" shape="103.47,94.86 103.43,95.00 99.89,99.89 95.00,103.43 89.60,104.80"/>
    </edge>
    <edge id=":center_21" function="internal">
        <lane id=":center_21_0" index="0" speed="8.00" length="10.13" shape="102.24,93.60 103.80,96.20 106.55,97.85 110.40,98.40"/>
    </edge>
    <edge id=":center_12" function="internal">
        <lane id=":center_12_0" index="0" speed="13.90" length="20.80" shape="89.60,95.20 110.40,95.20"/>
    </edge>
    <edge id=":center_13" function="internal">
        <lane id=":center_13_0" index="0" speed="10.10" length="9.83" shape="89.60,95.20 95.00,96.57 98.45,99.07"/>
    </edge>
    <edge id=":center_14" function="internal">
        <lane id=":center_14_0" index="0" speed="8.00" length="4.07" shape="89.60,98.40 93.45,97.85 93.60,97.76"/>
    </edge>
    <edge id=":center_15" function="internal">
        <lane id=":center_15_0" index="0" speed="13.90" length="20.80" shape="89.60,98.40 110.40,98.40"/>
    </edge>
    <edge id=":center_22" function="internal">
        <lane id=":center_22_0" index="0" speed="10.10" length="13.39" shape="98.45,99.07 99.89,100.11 103.43,105.00 104.80,110.40"/>
    </edge>
    <edge id=":center_23" function="internal">
        <lane id=":center_23_0" index="0" speed="8.00" length="10.13" shape="93.60,97.76 96.20,96.20 97.85,93.45 98.40,89.60"/>
    </edge>
    <edge id=":east_0" function="internal">
        <lane id=":east_0_0" index="0" speed="3.65" length="4.67" shape="200.00,98.40 201.20,99.20 201.60,100.00 201.20,100.80 200.00,101.60"/>
    </edge>
    <edge id=":north_0" function="internal">
        <lane id=":north_0_0" index="0" speed="3.65" length="4.67" shape="101.60,200.00 100.80,201.20 100.00,201.60 99.20,201.20 98.40,200.00"/>
    </edge>
    <edge id=":south_0" function="internal">
        <lane id=":south_0_0" index="0" speed="3.65" length="4.67" shape="98.40,0.00 99.20,-1.20 100.00,-1.60 100.80,-1.20 101.60,0.00"/>
    </edge>
    <edge id=":west_0" function="internal">
        <lane id=":west_0_0" index="0" speed="3.65" length="4.67" shape="0.00,101.60 -1.20,100.80 -1.60,100.00 -1.20,99.20 0.00,98.40"/>
    </edge>

    <edge id="east_in" from="east" to="center" priority="-1">
        <lane id="east_in_0" index="0" speed="13.90" length="89.60" shape="200.00,104.80 110.40,104.80"/>
        <lane id="east_in_1" index="1" speed="13.90" length="89.60" shape="200.00,101.60 110.40,101.60"/>
    </edge>
    <edge id="east_out" from="center" to="east" priority="-1">
        <lane id="east_out_0" index="0" speed="13.90" length="89.60" shape="110.40,95.20 200.00,95.20"/>
        <lane id="east_out_1" index="1" speed="13.90" length="89.60" shape="110.40,98.40 200.00,98.40"/>
    </edge>
    <edge id="north_in" from="north" to="center" priority="-1">
        <lane id="north_in_0" index="0" speed="13.90" length="89.60" shape="95.20,200.00 95.20,110.40"/>
        <lane id="north_in_1" index="1" speed="13.90" length="89.60" shape="98.40,200.00 98.40,110.40"/>
    </edge>
    <edge id="north_out" from="center" to="north" priority="-1">
        <lane id="north_out_0" index="0" speed="13.90" length="89.60" shape="104.80,110.40 104.80,200.00"/>
        <lane id="north_out_1" index="1" speed="13.90" length="89.60" shape="101.60,110.40 101.60,200.00"/>
    </edge>
    <edge id="south_in" from="south" to="center" priority="-1">
        <lane id="south_in_0" index="0" speed="13.90" length="89.60" shape="104.80,0.00 104.80,89.60"/>
        <lane id="south_in_1" index="1" speed="13.90" length="89.60" shape="101.60,0.00 101.60,89.60"/>
    </edge>
    <edge id="south_out" from="center" to="south" priority="-1">
        <lane id="south_out_0" index="0" speed="13.90" length="89.60" shape="95.20,89.60 95.20,0.00"/>
        <lane id="south_out_1" index="1" speed="13.90" length="89.60" shape="98.40,89.60 98.40,0.00"/>
    </edge>
    <edge id="west_in" from="west" to="center" priority="-1">
        <lane id="west_in_0" index="0" speed="13.90" length="89.60" shape="0.00,95.20 89.60,95.20"/>
        <lane id="west_in_1" index="1" speed="13.90" length="89.60" shape="0.00,98.40 89.60,98.40"/>
    </edge>
    <edge id="west_out" from="center" to="west" priority="-1">
        <lane id="west_out_0" index="0" speed="13.90" length="89.60" shape="89.60,104.80 0.00,104.80"/>
        <lane id="west_out_1" index="1" speed="13.90" length="89.60" shape="89.60,101.60 0.00,101.60"/>
    </edge>

    <tlLogic id="center" type="static" programID="0" offset="0">
        <phase duration="42" state="GggGrrrrGggGrrrr"/>
        <phase duration="3"  state="yyyyrrrryyyyrrrr"/>
        <phase duration="42" state="rrrrGggGrrrrGggG"/>
        <phase duration="3"  state="rrrryyyyrrrryyyy"/>
    </tlLogic>

    <junction id="center" type="traffic_light" x="100.00" y="100.00" incLanes="north_in_0 north_in_1 east_in_0 east_in_1 south_in_0 south_in_1 west_in_0 west_in_1" intLanes=":center_0_0 :center_16_0 :center_17_0 :center_3_0 :center_4_0 :center_18_0 :center_19_0 :center_7_0 :center_8_0 :center_20_0 :center_21_0 :center_11_0 :center_12_0 :center_22_0 :center_23_0 :center_15_0" shape="93.60,110.40 106.40,110.40 106.84,108.18 107.40,107.40 108.18,106.84 109.18,106.51 110.40,106.40 110.40,93.60 108.18,93.16 107.40,92.60 106.84,91.82 106.51,90.82 106.40,89.60 93.60,89.60 93.16,91.82 92.60,92.60 91.82,93.16 90.82,93.49 89.60,93.60 89.60,106.40 91.82,106.84 92.60,107.40 93.16,108.18 93.49,109.18">
        <request index="0"  response="0110000000100000" foes="1111001010110100" cont="0"/>
        <request index="1"  response="0010111100101000" foes="1011111110111100" cont="1"/>
        <request index="2"  response="0000000000000011" foes="0000001010010011" cont="1"/>
        <request index="3"  response="0110000000100000" foes="1111001010110010" cont="0"/>
        <request index="4"  response="0000101100001111" foes="0010101101001111" cont="0"/>
        <request index="5"  response="1111101110001011" foes="1111101111001011" cont="1"/>
        <request index="6"  response="0000100100110000" foes="0010100100110000" cont="1"/>
        <request index="7"  response="0000101100001111" foes="0010101100101111" cont="0"/>
        <request index="8"  response="0010000001100000" foes="1011010011110010" cont="0"/>
        <request index="9"  response="0010100000101101" foes="1011110010111111" cont="1"/>
        <request index="10" response="0000001100000000" foes="1001001100000010" cont="1"/>
        <request index="11" response="0010000001100000" foes="1011001011110010" cont="0"/>
        <request index="12" response="0000111100001011" foes="0100111100101011" cont="0"/>
        <request index="13" response="1000101111011011" foes="1100101111111011" cont="1"/>
        <request index="14" response="0011000000001001" foes="0011000000101001" cont="1"/>
        <request index="15" response="0000111100001011" foes="0010111100101011" cont="0"/>
    </junction>
    <junction id="east" type="priority" x="200.00" y="100.00" incLanes="east_out_0 east_out_1" intLanes=":east_0_0" shape="200.00,100.00 200.00,93.60 200.00,100.00">
        <request index="0" response="0" foes="0" cont="0"/>
    </junction>
    <junction id="north" type="priority" x="100.00" y="200.00" incLanes="north_out_0 north_out_1" intLanes=":north_0_0" shape="100.00,200.00 106.40,200.00 100.00,200.00">
        <request index="0" response="0" foes="0" cont="0"/>
    </junction>
    <junction id="south" type="priority" x="100.00" y="0.00" incLanes="south_out_0 south_out_1" intLanes=":south_0_0" shape="100.00,0.00 93.60,0.00 100.00,0.00">
        <request index="0" response="0" foes="0" cont="0"/>
    </junction>
    <junction id="west" type="priority" x="0.00" y="100.00" incLanes="west_out_0 west_out_1" intLanes=":west_0_0" shape="0.00,100.00 0.00,106.40 0.00,100.00">
        <request index="0" response="0" foes="0" cont="0"/>
    </junction>

    <junction id=":center_16_0" type="internal" x="96.53" y="105.14" incLanes=":center_1_0 :center_9_0 south_in_0 south_in_1" intLanes=":center_20_0 :center_3_0 :center_4_0 :center_5_0 :center_7_0 :center_8_0 :center_9_0 :center_10_0 :center_11_0 :center_12_0 :center_13_0 :center_15_0"/>
    <junction id=":center_17_0" type="internal" x="97.76" y="106.40" incLanes=":center_2_0 north_in_0" intLanes=":center_0_0 :center_1_0 :center_4_0 :center_7_0 :center_9_0"/>
    <junction id=":center_18_0" type="internal" x="101.55" y="100.93" incLanes=":center_5_0 west_in_0 west_in_1" intLanes=":center_0_0 :center_1_0 :center_3_0 :center_7_0 :center_8_0 :center_9_0 :center_11_0 :center_12_0 :center_13_0 :center_14_0 :center_15_0"/>
    <junction id=":center_19_0" type="internal" x="106.40" y="102.24" incLanes=":center_6_0 east_in_0" intLanes=":center_4_0 :center_5_0 :center_8_0 :center_11_0 :center_13_0"/>
    <junction id=":center_20_0" type="internal" x="103.47" y="94.86" incLanes=":center_9_0 north_in_0 north_in_1" intLanes=":center_0_0 :center_1_0 :center_2_0 :center_3_0 :center_4_0 :center_5_0 :center_7_0 :center_11_0 :center_12_0 :center_13_0 :center_15_0"/>
    <junction id=":center_21_0" type="internal" x="102.24" y="93.60" incLanes=":center_10_0 south_in_0" intLanes=":center_1_0 :center_8_0 :center_9_0 :center_12_0 :center_15_0"/>
    <junction id=":center_22_0" type="internal" x="98.45" y="99.07" incLanes=":center_13_0 east_in_0 east_in_1" intLanes=":center_0_0 :center_1_0 :center_3_0 :center_4_0 :center_5_0 :center_6_0 :center_7_0 :center_8_0 :center_9_0 :center_11_0 :center_15_0"/>
    <junction id=":center_23_0" type="internal" x="93.60" y="97.76" incLanes=":center_14_0 west_in_0" intLanes=":center_0_0 :center_3_0 :center_5_0 :center_12_0 :center_13_0"/>

    <connection from="east_in" to="west_out" fromLane="0" toLane="0" via=":center_4_0" tl="center" linkIndex="4" dir="s" state="o"/>
    <connection from="east_in" to="south_out" fromLane="0" toLane="0" via=":center_5_0" tl="center" linkIndex="5" dir="l" state="o"/>
    <connection from="east_in" to="north_out" fromLane="1" toLane="1" via=":center_6_0" tl="center" linkIndex="6" dir="r" state="o"/>
    <connection from="east_in" to="west_out" fromLane="1" toLane="1" via=":center_7_0" tl="center" linkIndex="7" dir="s" state="o"/>
    <connection from="east_out" to="east_in" fromLane="1" toLane="1" via=":east_0_0" dir="t" state="M"/>
    <connection from="north_in" to="south_out" fromLane="0" toLane="0" via=":center_0_0" tl="center" linkIndex="0" dir="s" state="O"/>
    <connection from="north_in" to="east_out" fromLane="0" toLane="0" via=":center_1_0" tl="center" linkIndex="1" dir="l" state="o"/>
    <connection from="north_in" to="west_out" fromLane="1" toLane="1" via=":center_2_0" tl="center" linkIndex="2" dir="r" state="o"/>
    <connection from="north_in" to="south_out" fromLane="1" toLane="1" via=":center_3_0" tl="center" linkIndex="3" dir="s" state="O"/>
    <connection from="north_out" to="north_in" fromLane="1" toLane="1" via=":north_0_0" dir="t" state="M"/>
    <connection from="south_in" to="north_out" fromLane="0" toLane="0" via=":center_8_0" tl="center" linkIndex="8" dir="s" state="O"/>
    <connection from="south_in" to="west_out" fromLane="0" toLane="0" via=":center_9_0" tl="center" linkIndex="9" dir="l" state="o"/>
    <connection from="south_in" to="east_out" fromLane="1" toLane="1" via=":center_10_0" tl="center" linkIndex="10" dir="r" state="o"/>
    <connection from="south_in" to="north_out" fromLane="1" toLane="1" via=":center_11_0" tl="center" linkIndex="11" dir="s" state="O"/>
    <connection from="south_out" to="south_in" fromLane="1" toLane="1" via=":south_0_0" dir="t" state="M"/>
    <connection from="west_in" to="east_out" fromLane="0" toLane="0" via=":center_12_0" tl="center" linkIndex="12" dir="s" state="o"/>
    <connection from="west_in" to="north_out" fromLane="0" toLane="0" via=":center_13_0" tl="center" linkIndex="13" dir="l" state="o"/>
    <connection from="west_in" to="south_out" fromLane="1" toLane="1" via=":center_14_0" tl="center" linkIndex="14" dir="r" state="o"/>
    <connection from="west_in" to="east_out" fromLane="1" toLane="1" via=":center_15_0" tl="center" linkIndex="15" dir="s" state="o"/>
    <connection from="west_out" to="west_in" fromLane="1" toLane="1" via=":west_0_0" dir="t" state="M"/>

    <connection from=":center_0" to="south_out" fromLane="0" toLane="0" dir="s" state="M"/>
    <connection from=":center_1" to="east_out" fromLane="0" toLane="0" via=":center_16_0" dir="l" state="m"/>
    <connection from=":center_16" to="east_out" fromLane="0" toLane="0" dir="l" state="M"/>
    <connection from=":center_2" to="west_out" fromLane="0" toLane="1" via=":center_17_0" dir="r" state="m"/>
    <connection from=":center_17" to="west_out" fromLane="0" toLane="1" dir="r" state="M"/>
    <connection from=":center_3" to="south_out" fromLane="0" toLane="1" dir="s" state="M"/>
    <connection from=":center_4" to="west_out" fromLane="0" toLane="0" dir="s" state="M"/>
    <connection from=":center_5" to="south_out" fromLane="0" toLane="0" via=":center_18_0" dir="l" state="m"/>
    <connection from=":center_18" to="south_out" fromLane="0" toLane="0" dir="l" state="M"/>
    <connection from=":center_6" to="north_out" fromLane="0" toLane="1" via=":center_19_0" dir="r" state="m"/>
    <connection from=":center_19" to="north_out" fromLane="0" toLane="1" dir="r" state="M"/>
    <connection from=":center_7" to="west_out" fromLane="0" toLane="1" dir="s" state="M"/>
    <connection from=":center_8" to="north_out" fromLane="0" toLane="0" dir="s" state="M"/>
    <connection from=":center_9" to="west_out" fromLane="0" toLane="0" via=":center_20_0" dir="l" state="m"/>
    <connection from=":center_20" to="west_out" fromLane="0" toLane="0" dir="l" state="M"/>
    <connection from=":center_10" to="east_out" fromLane="0" toLane="1" via=":center_21_0" dir="r" state="m"/>
    <connection from=":center_21" to="east_out" fromLane="0" toLane="1" dir="r" state="M"/>
    <connection from=":center_11" to="north_out" fromLane="0" toLane="1" dir="s" state="M"/>
    <connection from=":center_12" to="east_out" fromLane="0" toLane="0" dir="s" state="M"/>
    <connection from=":center_13" to="north_out" fromLane="0" toLane="0" via=":center_22_0" dir="l" state="m"/>
    <connection from=":center_22" to="north_out" fromLane="0" toLane="0" dir="l" state="M"/>
    <connection from=":center_14" to="south_out" fromLane="0" toLane="1" via=":center_23_0" dir="r" state="m"/>
    <connection from=":center_23" to="south_out" fromLane="0" toLane="1" dir="r" state="M"/>
    <connection from=":center_15" to="east_out" fromLane="0" toLane="1" dir="s" state="M"/>
    <connection from=":east_0" to="east_in" fromLane="0" toLane="1" dir="t" state="M"/>
    <connection from=":north_0" to="north_in" fromLane="0" toLane="1" dir="t" state="M"/>
    <connection from=":south_0" to="south_in" fromLane="0" toLane="1" dir="t" state="M"/>
    <connection from=":west_0" to="west_in" fromLane="0" toLane="1" dir="t" state="M"/>

</net>
